.model 2N7002 VDMOS(Rg=3 Vto=1.6 Rd=0 Rs=.75 Rb=.14 Kp=.17 mtriode=1.25 Cgdmax=80p Cgdmin=12p Cgs=50p Cjo=50p Is=.04p mfg=Fairchild Vds=60 Ron=2 Qg=1.5n)
.model BSS84 VDMOS(pchan Rg=3 Vto=-2.1 Rd=2.4 Rs=1.8 Rb=3 Kp=.2 Cgdmax=.04n Cgdmin=.001n Cgs=.02n Cjo=.01n Is=2p mfg=Philips Vds=-50 Ron=6000m Qg=1n)
.model DIODE D 2 1

.subckt BSS8402DW 1 2 3 4 5 6
M1 3 5 4 4 BSS84
M2 6 2 1 1 2N7002
.ends BSS8402DW

.subckt Antimax 1 2 3 4 6
M2 Net-_M2-Pad1_ 1 2 2 BSS84
M3 Net-_M3-Pad1_ 3 Net-_M2-Pad1_ Net-_M2-Pad1_ BSS84
M4 Net-_M1-Pad1_ 1 6 6 2N7002
M1 Net-_M1-Pad1_ 3 6 6 2N7002
R1 Net-_M3-Pad1_ 4 12k
R2 4 Net-_M1-Pad1_ 12k
.ends Antimax

.subckt Antimin 1 2 3 4 6
M1 Net-_M1-Pad1_ 1 2 2 BSS84
M2 Net-_M1-Pad1_ 3 2 2 BSS84
M3 Net-_M3-Pad1_ 1 Net-_M3-Pad3_ Net-_M3-Pad3_ 2N7002
M4 Net-_M3-Pad3_ 3 6 6 2N7002
R1 Net-_M1-Pad1_ 4 12k
R2 4 Net-_M3-Pad1_ 12k
.ends Antimin

.subckt InverterFull 1 2 3 4 5 6
M1 2 3 1 1 BSS84
M2 6 3 5 5 2N7002
R2 2 4 12k
R3 4 6 12k
.ends InverterFull

.subckt Inverter 1 3 4 5
M1 net_2 3 1 1 BSS84
M2 net_6 3 5 5 2N7002
R2 net_2 4 12k
R3 4 net_6 12k
.ends Inverter

.subckt InverterPti 1 2 3 5
M1 2 3 1 1 BSS84
M2 net_6 3 5 5 2N7002
R2 2 net_4 12k
R3 net_4 net_6 12k
.ends InverterFull

.subckt InverterNti 1 3 5 6
M1 net_2 3 1 1 BSS84
M2 6 3 5 5 2N7002
R2 net_2 net_4 12k
R3 net_4 6 12k
.ends InverterFull

.subckt NAny 1 2 3 4 6
M2 Net-_M2-Pad1_ 3 Net-_M1-Pad1_ Net-_M1-Pad1_ BSS84
M3 Net-_M3-Pad1_ 1 Net-_M3-Pad3_ Net-_M3-Pad3_ 2N7002
R2 4 Net-_M3-Pad1_ 12k
R1 Net-_M2-Pad1_ 4 12k
M4 Net-_M3-Pad3_ 3 6 6 2N7002
M1 Net-_M1-Pad1_ 1 2 2 BSS84
.ends NAny

.subckt NConsensus 1 2 3 4 6
M3 Net-_M1-Pad1_ 3 2 2 BSS84
M4 Net-_M2-Pad1_ 3 6 6 2N7002
R2 4 Net-_M2-Pad1_ 12k
R1 Net-_M1-Pad1_ 4 12k
M1 Net-_M1-Pad1_ 1 2 2 BSS84
M2 Net-_M2-Pad1_ 1 6 6 2N7002
.ends NConsensus

.subckt Quadstate 1 2 3 4 6
M5 Net-_M5-Pad1_ Net-_M3-Pad1_ 2 2 BSS84
M7 Net-_M7-Pad1_ Net-_M6-Pad2_ Net-_M7-Pad3_ Net-_M7-Pad3_ 2N7002
M6 Net-_M6-Pad1_ Net-_M6-Pad2_ Net-_M5-Pad1_ Net-_M5-Pad1_ BSS84
M8 Net-_M7-Pad3_ 1 6 6 2N7002
R4 Net-_M6-Pad1_ 4 12k
R5 4 Net-_M7-Pad1_ 12k
M3 Net-_M3-Pad1_ 1 2 2 BSS84
M4 Net-_M3-Pad1_ 1 6 6 2N7002
R2 Net-_M6-Pad2_ Net-_M2-Pad1_ 12k
R1 Net-_M1-Pad1_ Net-_M6-Pad2_ 12k
M2 Net-_M2-Pad1_ 3 6 6 2N7002
M1 Net-_M1-Pad1_ 3 2 2 BSS84
.ends Quadstate