.model 2N7002 VDMOS(Rg=3 Vto=1.6 Rd=0 Rs=.75 Rb=.14 Kp=.17 mtriode=1.25 Cgdmax=80p Cgdmin=12p Cgs=50p Cjo=50p Is=.04p mfg=Fairchild Vds=60 Ron=2 Qg=1.5n)
.model BSS84 VDMOS(pchan Rg=3 Vto=-2.1 Rd=2.4 Rs=1.8 Rb=3 Kp=.2 Cgdmax=.04n Cgdmin=.001n Cgs=.02n Cjo=.01n Is=2p mfg=Philips Vds=-50 Ron=6000m Qg=1n)
